/*--------------------------------*- C++ -*----------------------------------*\
| =========                 |                                                 |
| \\      /  F ield         | OpenFOAM: The Open Source CFD Toolbox           |
|  \\    /   O peration     | Version:  v1906                                 |
|   \\  /    A nd           | Web:      www.OpenFOAM.com                      |
|    \\/     M anipulation  |                                                 |
\*---------------------------------------------------------------------------*/
FoamFile
{
    version     2.0;
    format      ascii;
    class       polyBoundaryMesh;
    location    "constant/fbe13/polyMesh";
    object      boundary;
}
// * * * * * * * * * * * * * * * * * * * * * * * * * * * * * * * * * * * * * //

6
(
    front
    {
        type            wedge;
        inGroups        1(wedge);
        nFaces          2500;
        startFace       4900;
    }
    back
    {
        type            wedge;
        inGroups        1(wedge);
        nFaces          2500;
        startFace       7400;
    }
    fbe13_to_fbe12
    {
        type            mappedWall;
        inGroups        1(wall);
        nFaces          50;
        startFace       9900;
        sampleMode      nearestPatchFace;
        sampleRegion    fbe12;
        samplePatch     fbe12_to_fbe13;
    }
    fbe13_to_cs9
    {
        type            mappedWall;
        inGroups        1(wall);
        nFaces          50;
        startFace       9950;
        sampleMode      nearestPatchFace;
        sampleRegion    cs9;
        samplePatch     cs9_to_fbe13;
    }
    fbe13_to_adh17
    {
        type            mappedWall;
        inGroups        1(wall);
        nFaces          50;
        startFace       10000;
        sampleMode      nearestPatchFace;
        sampleRegion    adh17;
        samplePatch     adh17_to_fbe13;
    }
    fbe13_to_fbe14
    {
        type            mappedWall;
        inGroups        1(wall);
        nFaces          50;
        startFace       10050;
        sampleMode      nearestPatchFace;
        sampleRegion    fbe14;
        samplePatch     fbe14_to_fbe13;
    }
)

// ************************************************************************* //
