/*--------------------------------*- C++ -*----------------------------------*\
| =========                 |                                                 |
| \\      /  F ield         | OpenFOAM: The Open Source CFD Toolbox           |
|  \\    /   O peration     | Version:  v1906                                 |
|   \\  /    A nd           | Web:      www.OpenFOAM.com                      |
|    \\/     M anipulation  |                                                 |
\*---------------------------------------------------------------------------*/
FoamFile
{
    version     2.0;
    format      ascii;
    class       dictionary;
    object      blockMeshDict;
}
// * * * * * * * * * * * * * * * * * * * * * * * * * * * * * * * * * * * * * //

convertToMeters   0.001;

vertices
(   

     (     0.                    0.                    0.                 )
     (   542.325968860433        0.                    0.                 )
     (     0.                  154.7                   0.                 )
     (   542.325968860433      154.7                   0.                 )
     (     0.                  157.7                   0.                 )
     (   542.325968860433      157.7                   0.                 )
     (     0.                  177.8                   0.                 )
     (   542.325968860433      177.8                   0.                 )
     (     0.                  178.1                   0.                 )
     (   542.325968860433      178.1                   0.                 )
     (     0.                  178.4                   0.                 )
     (   542.325968860433      178.4                   0.                 )
     (     0.                  182.4                   0.                 )
     (   263.747941178395      182.4                   0.                 )
     (   278.67614440867       178.4                   0.                 )
     (     0.                  198.8                   0.                 )
     (   158.578027682038      198.8                   0.                 )
     (   193.747941178395      182.4                   0.                 )
     (     0.                  202.8                   0.                 )
     (   150.                  202.8                   0.                 )
     (   158.578027682038      198.8                   0.                 )
     (   100.                  202.8                   0.                 )
     (   117.156055364076      210.8                   0.                 )
     (   542.325968860433      210.8                   0.                 )
     (   542.325968860433      202.8                   0.                 )
     (   542.325968860433      198.8                   0.                 )
     (   542.325968860433      182.4                   0.                 )
     (   193.747941178395      178.4                   0.                 )
     (   193.747941178395      178.1                   0.                 )
     (   193.747941178395      177.8                   0.                 )
     (   193.747941178395      157.7                   0.                 )
     (   193.747941178395      154.7                   0.                 )
     (   193.747941178395        0.                    0.                 )
     (   263.747941178395      210.8                   0.                 )
     (   263.747941178395      202.8                   0.                 )
     (   263.747941178395      198.8                   0.                 )
     (   278.67614440867       178.1                   0.                 )
     (   278.67614440867       177.8                   0.                 )
     (   278.67614440867       157.7                   0.                 )
     (   278.67614440867       154.7                   0.                 )
     (   278.67614440867         0.                    0.                 )
     (   150.                  210.8                   0.                 )
     (   100.                  198.8                   0.                 )
     (   100.                  182.4                   0.                 )
     (   100.                  178.4                   0.                 )
     (   100.                  178.1                   0.                 )
     (   100.                  177.8                   0.                 )
     (   100.                  157.7                   0.                 )
     (   100.                  154.7                   0.                 )
     (   100.                    0.                    0.                 )
     (     0.                    0.                    0.                 )
     (   542.325968860433        0.                    0.                 )
     (     0.                  154.605760939854        5.3989521398769    )
     (   542.325968860433      154.605760939854        5.3989521398769    )
     (     0.                  157.603933420911        5.5036506299844    )
     (   542.325968860433      157.603933420911        5.5036506299844    )
     (     0.                  177.691689043995        6.20513051370467   )
     (   542.325968860433      177.691689043995        6.20513051370467   )
     (     0.                  177.991506292101        6.21560036271542   )
     (   542.325968860433      177.991506292101        6.21560036271542   )
     (     0.                  178.291323540207        6.22607021172617   )
     (   542.325968860433      178.291323540207        6.22607021172617   )
     (     0.                  182.288886848283        6.36566819853618   )
     (   263.747941178395      182.288886848283        6.36566819853618   )
     (   278.67614440867       178.291323540207        6.22607021172617   )
     (     0.                  198.678896411396        6.93801994445719   )
     (   158.578027682038      198.678896411396        6.93801994445719   )
     (   193.747941178395      182.288886848283        6.36566819853618   )
     (     0.                  202.676459719473        7.0776179312672    )
     (   150.                  202.676459719473        7.0776179312672    )
     (   158.578027682038      198.678896411396        6.93801994445719   )
     (   100.                  202.676459719473        7.0776179312672    )
     (   117.156055364076      210.671586335625        7.3568139048872    )
     (   542.325968860433      210.671586335625        7.3568139048872    )
     (   542.325968860433      202.676459719473        7.0776179312672    )
     (   542.325968860433      198.678896411396        6.93801994445719   )
     (   542.325968860433      182.288886848283        6.36566819853618   )
     (   193.747941178395      178.291323540207        6.22607021172617   )
     (   193.747941178395      177.991506292101        6.21560036271542   )
     (   193.747941178395      177.691689043995        6.20513051370467   )
     (   193.747941178395      157.603933420911        5.5036506299844    )
     (   193.747941178395      154.605760939854        5.3989521398769    )
     (   193.747941178395        0.                    0.                 )
     (   263.747941178395      210.671586335625        7.3568139048872    )
     (   263.747941178395      202.676459719473        7.0776179312672    )
     (   263.747941178395      198.678896411396        6.93801994445719   )
     (   278.67614440867       177.991506292101        6.21560036271542   )
     (   278.67614440867       177.691689043995        6.20513051370467   )
     (   278.67614440867       157.603933420911        5.5036506299844    )
     (   278.67614440867       154.605760939854        5.3989521398769    )
     (   278.67614440867         0.                    0.                 )
     (   150.                  210.671586335625        7.3568139048872    )
     (   100.                  198.678896411396        6.93801994445719   )
     (   100.                  182.288886848283        6.36566819853618   )
     (   100.                  178.291323540207        6.22607021172617   )
     (   100.                  177.991506292101        6.21560036271542   )
     (   100.                  177.691689043995        6.20513051370467   )
     (   100.                  157.603933420911        5.5036506299844    )
     (   100.                  154.605760939854        5.3989521398769    )
     (   100.                    0.                    0.                 )
     (     0.                    0.                    0.                 )
     (   542.325968860433        0.                    0.                 )
     (     0.                  154.605760939854       -5.3989521398769    )
     (   542.325968860433      154.605760939854       -5.3989521398769    )
     (     0.                  157.603933420911       -5.5036506299844    )
     (   542.325968860433      157.603933420911       -5.5036506299844    )
     (     0.                  177.691689043995       -6.20513051370467   )
     (   542.325968860433      177.691689043995       -6.20513051370467   )
     (     0.                  177.991506292101       -6.21560036271542   )
     (   542.325968860433      177.991506292101       -6.21560036271542   )
     (     0.                  178.291323540207       -6.22607021172617   )
     (   542.325968860433      178.291323540207       -6.22607021172617   )
     (     0.                  182.288886848283       -6.36566819853618   )
     (   263.747941178395      182.288886848283       -6.36566819853618   )
     (   278.67614440867       178.291323540207       -6.22607021172617   )
     (     0.                  198.678896411396       -6.93801994445719   )
     (   158.578027682038      198.678896411396       -6.93801994445719   )
     (   193.747941178395      182.288886848283       -6.36566819853618   )
     (     0.                  202.676459719473       -7.0776179312672    )
     (   150.                  202.676459719473       -7.0776179312672    )
     (   158.578027682038      198.678896411396       -6.93801994445719   )
     (   100.                  202.676459719473       -7.0776179312672    )
     (   117.156055364076      210.671586335625       -7.3568139048872    )
     (   542.325968860433      210.671586335625       -7.3568139048872    )
     (   542.325968860433      202.676459719473       -7.0776179312672    )
     (   542.325968860433      198.678896411396       -6.93801994445719   )
     (   542.325968860433      182.288886848283       -6.36566819853618   )
     (   193.747941178395      178.291323540207       -6.22607021172617   )
     (   193.747941178395      177.991506292101       -6.21560036271542   )
     (   193.747941178395      177.691689043995       -6.20513051370467   )
     (   193.747941178395      157.603933420911       -5.5036506299844    )
     (   193.747941178395      154.605760939854       -5.3989521398769    )
     (   193.747941178395        0.                    0.                 )
     (   263.747941178395      210.671586335625       -7.3568139048872    )
     (   263.747941178395      202.676459719473       -7.0776179312672    )
     (   263.747941178395      198.678896411396       -6.93801994445719   )
     (   278.67614440867       177.991506292101       -6.21560036271542   )
     (   278.67614440867       177.691689043995       -6.20513051370467   )
     (   278.67614440867       157.603933420911       -5.5036506299844    )
     (   278.67614440867       154.605760939854       -5.3989521398769    )
     (   278.67614440867         0.                    0.                 )
     (   150.                  210.671586335625       -7.3568139048872    )
     (   100.                  198.678896411396       -6.93801994445719   )
     (   100.                  182.288886848283       -6.36566819853618   )
     (   100.                  178.291323540207       -6.22607021172617   )
     (   100.                  177.991506292101       -6.21560036271542   )
     (   100.                  177.691689043995       -6.20513051370467   )
     (   100.                  157.603933420911       -5.5036506299844    )
     (   100.                  154.605760939854       -5.3989521398769    )
     (   100.                    0.                    0.                 )

);

blocks
(
 //                                                          x z y 
     hex (    0   49   49    0   52   98  148  102 ) water0 (50 1 50) simpleGrading (1 1 1)
     hex (   49   32   32   49   98   81  131  148 ) water1 (50 1 50) simpleGrading (1 1 1)
     hex (   32   40   40   32   81   89  139  131 ) water2 (50 1 50) simpleGrading (1 1 1)
     hex (   40    1    1   40   89   53  103  139 ) water3 (50 1 50) simpleGrading (1 1 1)
     hex (   52   98  148  102   54   97  147  104 ) cra4   (50 1 50) simpleGrading (1 1 1)
     hex (   98   81  131  148   97   80  130  147 ) cra5   (50 1 50) simpleGrading (1 1 1)
     hex (   81   89  139  131   80   88  138  130 ) cra6   (50 1 50) simpleGrading (1 1 1)
     hex (   89   53  103  139   88   55  105  138 ) cra7   (50 1 50) simpleGrading (1 1 1)
     hex (   54   97  147  104   56   96  146  106 ) cs8    (50 1 50) simpleGrading (1 1 1)
     hex (   97   80  130  147   96   79  129  146 ) cs9    (50 1 50) simpleGrading (1 1 1)
     hex (   80   88  138  130   79   87  137  129 ) cs10   (50 1 50) simpleGrading (1 1 1)
     hex (   88   55  105  138   87   57  107  137 ) cs11   (50 1 50) simpleGrading (1 1 1)
     hex (   56   96  146  106   58   95  145  108 ) fbe12  (50 1 50) simpleGrading (1 1 1)
     hex (   96   79  129  146   95   78  128  145 ) fbe13  (50 1 50) simpleGrading (1 1 1)
     hex (   79   87  137  129   78   86  136  128 ) fbe14  (50 1 50) simpleGrading (1 1 1)
     hex (   87   57  107  137   86   59  109  136 ) fbe15  (50 1 50) simpleGrading (1 1 1)
     hex (   58   95  145  108   60   94  144  110 ) adh16  (50 1 50) simpleGrading (1 1 1)
     hex (   95   78  128  145   94   77  127  144 ) adh17  (50 1 50) simpleGrading (1 1 1)
     hex (   78   86  136  128   77   64  114  127 ) adh18  (50 1 50) simpleGrading (1 1 1)
     hex (   86   59  109  136   64   61  111  114 ) adh19  (50 1 50) simpleGrading (1 1 1)
     hex (   60   94  144  110   62   93  143  112 ) pps20  (50 1 50) simpleGrading (1 1 1)
     hex (   94   77  127  144   93   67  117  143 ) pps21  (50 1 50) simpleGrading (1 1 1)
     hex (   77   64  114  127   67   63  113  117 ) pps22 (50 1 50) simpleGrading (1 1 1)
     hex (   64   61  111  114   63   76  126  113 ) impp23 (50 1 50) simpleGrading (1 1 1)
     hex (   62   93  143  112   65   92  142  115 ) ppf24  (50 1 50) simpleGrading (1 1 1)
     hex (   93   67  117  143   92   66  116  142 ) ppf25  (50 1 50) simpleGrading (1 1 1)
     hex (   67   63  113  117   66   85  135  116 ) impp26 (50 1 50) simpleGrading (1 1 1)
     hex (   63   76  126  113   85   75  125  135 ) impp27 (50 1 50) simpleGrading (1 1 1)
     hex (   65   92  142  115   68   71  121  118 ) pps28  (50 1 50) simpleGrading (1 1 1)
     hex (   92   66  116  142   71   69  119  121 ) pps29  (50 1 50) simpleGrading (1 1 1)
     hex (   66   85  135  116   69   84  134  119 ) impp30 (50 1 50) simpleGrading (1 1 1)
     hex (   85   75  125  135   84   74  124  134 ) impp31 (50 1 50) simpleGrading (1 1 1)
     hex (   71   69  119  121   72   91  141  122 ) impp32 (50 1 50) simpleGrading (1 1 1)
     hex (   69   84  134  119   91   83  133  141 ) impp33 (50 1 50) simpleGrading (1 1 1)
     hex (   84   74  124  134   83   73  123  133 ) impp34 (50 1 50) simpleGrading (1 1 1)
);

edges
(
     arc 52 102       (     0.                   10.                    0.                 )
     arc 53 103       (   542.325968860433       10.                    0.                 )
     arc 54 104       (     0.                   20.                    0.                 )
     arc 55 105       (   542.325968860433       20.                    0.                 )
     arc 56 106       (     0.                   30.                    0.                 )
     arc 57 107       (   542.325968860433       30.                    0.                 )
     arc 58 108       (     0.                   40.                    0.                 )
     arc 59 109       (   542.325968860433       40.                    0.                 )
     arc 60 110       (     0.                   50.                    0.                 )
     arc 61 111       (   542.325968860433       50.                    0.                 )
     arc 62 112       (     0.                   60.                    0.                 )
     arc 63 113       (   263.747941178395       60.                    0.                 )
     arc 64 114       (   278.67614440867        50.                    0.                 )
     arc 65 115       (     0.                   70.                    0.                 )
     arc 66 116       (   158.578027682038       70.                    0.                 )
     arc 67 117       (   193.747941178395       60.                    0.                 )
     arc 68 118       (     0.                   80.                    0.                 )
     arc 69 119       (   150.                   80.                    0.                 )
//     arc 70 120       (   158.578027682038       70.                    0.                 )
     arc 71 121       (   100.                   80.                    0.                 )
     arc 72 122       (   117.156055364076       90.                    0.                 )
     arc 73 123       (   542.325968860433       90.                    0.                 )
     arc 74 124       (   542.325968860433       80.                    0.                 )
     arc 75 125       (   542.325968860433       70.                    0.                 )
     arc 76 126       (   542.325968860433       60.                    0.                 )
     arc 77 127       (   193.747941178395       50.                    0.                 )
     arc 78 128       (   193.747941178395       40.                    0.                 )
     arc 79 129       (   193.747941178395       30.                    0.                 )
     arc 80 130       (   193.747941178395       20.                    0.                 )
     arc 81 131       (   193.747941178395       10.                    0.                 )
     arc 83 133       (   263.747941178395       90.                    0.                 )
     arc 84 134       (   263.747941178395       80.                    0.                 )
     arc 85 135       (   263.747941178395       70.                    0.                 )
     arc 86 136       (   278.67614440867        40.                    0.                 )
     arc 87 137       (   278.67614440867        30.                    0.                 )
     arc 88 138       (   278.67614440867        20.                    0.                 )
     arc 89 139       (   278.67614440867        10.                    0.                 )
     arc 91 141       (   150.                   90.                    0.                 )
     arc 92 142       (   100.                   70.                    0.                 )
     arc 93 143       (   100.                   60.                    0.                 )
     arc 94 144       (   100.                   50.                    0.                 )
     arc 95 145       (   100.                   40.                    0.                 )
     arc 96 146       (   100.                   30.                    0.                 )
     arc 97 147       (   100.                   20.                    0.                 )
     arc 98 148       (   100.                   10.                    0.                 )

    
);

boundary
(
     front
     {
        type wedge;
        faces
        (
          // Front Wall Faces
            ( 0  49 98 52 )     // Front Patch - Cell - 0
            ( 49 32 81 98 )     // Front Patch - Cell - 1
            ( 32 40 89 81 )     // Front Patch - Cell - 2
            ( 40  1 53 89 )     // Front Patch - Cell - 3
            ( 52 98 97 54 )     // Front Patch - Cell - 4
            ( 98 81 80 97 )     // Front Patch - Cell - 5
            ( 81 89 88 80 )     // Front Patch - Cell - 6
            ( 89 53 55 88 )     // Front Patch - Cell - 7
            ( 54 97 96 56 )     // Front Patch - Cell - 8
            ( 97 80 79 96 )     // Front Patch - Cell - 9
            ( 80 88 87 79 )     // Front Patch - Cell - 10
            ( 88 55 57 87 )     // Front Patch - Cell - 11
            ( 56 96 95 58 )     // Front Patch - Cell - 12
            ( 96 79 78 95 )     // Front Patch - Cell - 13
            ( 79 87 86 78 )     // Front Patch - Cell - 14
            ( 87 57 59 86 )     // Front Patch - Cell - 15
            ( 58 95 94 60 )     // Front Patch - Cell - 16
            ( 95 78 77 94 )     // Front Patch - Cell - 17
            ( 78 86 64 77 )     // Front Patch - Cell - 18
            ( 86 59 61 64 )     // Front Patch - Cell - 19
            ( 60 94 93 62 )     // Front Patch - Cell - 20
            ( 94 77 67 93 )     // Front Patch - Cell - 21
            ( 77 64 63 67 )     // Front Patch - Cell - 22
            ( 64 61 76 63 )     // Front Patch - Cell - 23
            ( 62 93 92 65 )     // Front Patch - Cell - 24
            ( 93 67 66 92 )     // Front Patch - Cell - 25
            ( 67 63 85 66 )     // Front Patch - Cell - 26
            ( 63 76 75 85 )     // Front Patch - Cell - 27
            ( 65 92 71 68 )     // Front Patch - Cell - 28
            ( 92 66 69 71 )     // Front Patch - Cell - 29
            ( 66 85 84 69 )     // Front Patch - Cell - 30
            ( 85 75 74 84 )     // Front Patch - Cell - 31
            ( 71 69 91 72 )     // Front Patch - Cell - 32
            ( 69 84 83 91 )     // Front Patch - Cell - 33
            ( 84 74 73 83 )     // Front Patch - Cell - 34
          );
     }

     back
     {
        type wedge;
        faces
        (

          // Back Wall Faces
            (  49   0 102 148 )     // Back Patch - Cell - 0
            (  32  49 148 131 )     // Back Patch - Cell - 1
            (  40  32 131 139 )     // Back Patch - Cell - 2
            (   1  40 139 103 )     // Back Patch - Cell - 3
            ( 148 102 104 147 )     // Back Patch - Cell - 4
            ( 131 148 147 130 )     // Back Patch - Cell - 5
            ( 139 131 130 138 )     // Back Patch - Cell - 6
            ( 103 139 138 105 )     // Back Patch - Cell - 7
            ( 147 104 106 146 )     // Back Patch - Cell - 8
            ( 130 147 146 129 )     // Back Patch - Cell - 9
            ( 138 130 129 137 )     // Back Patch - Cell - 10
            ( 105 138 137 107 )     // Back Patch - Cell - 11
            ( 146 106 108 145 )     // Back Patch - Cell - 12
            ( 129 146 145 128 )     // Back Patch - Cell - 13
            ( 137 129 128 136 )     // Back Patch - Cell - 14
            ( 107 137 136 109 )     // Back Patch - Cell - 15
            ( 145 108 110 144 )     // Back Patch - Cell - 16
            ( 128 145 144 127 )     // Back Patch - Cell - 17
            ( 136 128 127 114 )     // Back Patch - Cell - 18
            ( 109 136 114 111 )     // Back Patch - Cell - 19
            ( 144 110 112 143 )     // Back Patch - Cell - 20
            ( 127 144 143 117 )     // Back Patch - Cell - 21
            ( 114 127 117 113 )     // Back Patch - Cell - 22
            ( 111 114 113 126 )     // Back Patch - Cell - 23
            ( 143 112 115 142 )     // Back Patch - Cell - 24
            ( 117 143 142 116 )     // Back Patch - Cell - 25
            ( 113 117 116 135 )     // Back Patch - Cell - 26
            ( 126 113 135 125 )     // Back Patch - Cell - 27
            ( 142 115 118 121 )     // Back Patch - Cell - 28
            ( 116 142 121 119 )     // Back Patch - Cell - 29
            ( 135 116 119 134 )     // Back Patch - Cell - 30
            ( 125 135 134 124 )     // Back Patch - Cell - 31
            ( 119 121 122 141 )     // Back Patch - Cell - 32
            ( 134 119 141 133 )     // Back Patch - Cell - 33
            ( 124 134 133 123 )     // Back Patch - Cell - 34

          );
     }
     
     wedgeleft
     {
          type patch;
          faces
          (
          // Left Wall Faces
            (   0  52 102   0 )     // Left Patch - Cell - 0
            (  52  54 104 102 )     // Left Patch - Cell - 4
            (  54  56 106 104 )     // Left Patch - Cell - 8
            (  56  58 108 106 )     // Left Patch - Cell - 12
            (  58  60 110 108 )     // Left Patch - Cell - 16
            (  60  62 112 110 )     // Left Patch - Cell - 20
            (  62  65 115 112 )     // Left Patch - Cell - 24
            (  65  68 118 115 )     // Left Patch - Cell - 28
          );
     }
          
     wedgeright
     {
          type patch;
          faces
          (
          // Right Wall Faces
            (  74 124 123  73 )     // Right Patch - Cell - 34
            (  75 125 124  74 )     // Right Patch - Cell - 31
            (  76 126 125  75 )     // Right Patch - Cell - 27
            (  61 111 126  76 )     // Right Patch - Cell - 23
            (  59 109 111  61 )     // Right Patch - Cell - 19
            (  57 107 109  59 )     // Right Patch - Cell - 15
            (  55 105 107  57 )     // Right Patch - Cell - 11
            (  53 103 105  55 )     // Right Patch - Cell - 7
            (   1   1 103  53 )     // Right Patch - Cell - 3
          );
     }
          
     seawater
     {
          type wall;
          faces
          (
          // Top Wall Faces
            (  68  71 121 118 ) 
            (  72  91 141 122 )
            (  91  83 133 141 )
            (  83  73 123 133 )
            (  71  72 122 121 )     // Left Patch - Cell - 32

          );
    }
    axis
     {
          type empty;
          faces
          (
          // Bottom Wall Face(s)
            (  49   0   0  49 )     // Bottom Patch - Cell - 0
            (  32  49  49  32 )     // Bottom Patch - Cell - 1
            (  40  32  32  40 )     // Bottom Patch - Cell - 2
            (   1  40  40   1 )     // Bottom Patch - Cell - 3
          );
     }
);





mergePatchPairs
(
);

// ************************************************************************* //

