/*--------------------------------*- C++ -*----------------------------------*\
| =========                 |                                                 |
| \\      /  F ield         | OpenFOAM: The Open Source CFD Toolbox           |
|  \\    /   O peration     | Version:  v1906                                 |
|   \\  /    A nd           | Web:      www.OpenFOAM.com                      |
|    \\/     M anipulation  |                                                 |
\*---------------------------------------------------------------------------*/
FoamFile
{
    version     2.0;
    format      ascii;
    class       polyBoundaryMesh;
    location    "constant/water1/polyMesh";
    object      boundary;
}
// * * * * * * * * * * * * * * * * * * * * * * * * * * * * * * * * * * * * * //

5
(
    front
    {
        type            wedge;
        inGroups        1(wedge);
        nFaces          2500;
        startFace       4900;
    }
    back
    {
        type            wedge;
        inGroups        1(wedge);
        nFaces          2500;
        startFace       7400;
    }
    water1_to_water0
    {
        type            mappedWall;
        inGroups        1(wall);
        nFaces          50;
        startFace       9900;
        sampleMode      nearestPatchFace;
        sampleRegion    water0;
        samplePatch     water0_to_water1;
    }
    water1_to_cra5
    {
        type            mappedWall;
        inGroups        1(wall);
        nFaces          50;
        startFace       9950;
        sampleMode      nearestPatchFace;
        sampleRegion    cra5;
        samplePatch     cra5_to_water1;
    }
    water1_to_water2
    {
        type            mappedWall;
        inGroups        1(wall);
        nFaces          50;
        startFace       10000;
        sampleMode      nearestPatchFace;
        sampleRegion    water2;
        samplePatch     water2_to_water1;
    }
)

// ************************************************************************* //
