/*--------------------------------*- C++ -*----------------------------------*\
| =========                 |                                                 |
| \\      /  F ield         | OpenFOAM: The Open Source CFD Toolbox           |
|  \\    /   O peration     | Version:  v1906                                 |
|   \\  /    A nd           | Web:      www.OpenFOAM.com                      |
|    \\/     M anipulation  |                                                 |
\*---------------------------------------------------------------------------*/
FoamFile
{
    version     2.0;
    format      ascii;
    class       polyBoundaryMesh;
    location    "constant/cs11/polyMesh";
    object      boundary;
}
// * * * * * * * * * * * * * * * * * * * * * * * * * * * * * * * * * * * * * //

6
(
    front
    {
        type            wedge;
        inGroups        1(wedge);
        nFaces          2500;
        startFace       4900;
    }
    back
    {
        type            wedge;
        inGroups        1(wedge);
        nFaces          2500;
        startFace       7400;
    }
    wedgeright
    {
        type            patch;
        nFaces          50;
        startFace       9900;
    }
    cs11_to_cs10
    {
        type            mappedWall;
        inGroups        1(wall);
        nFaces          50;
        startFace       9950;
        sampleMode      nearestPatchFace;
        sampleRegion    cs10;
        samplePatch     cs10_to_cs11;
    }
    cs11_to_cra7
    {
        type            mappedWall;
        inGroups        1(wall);
        nFaces          50;
        startFace       10000;
        sampleMode      nearestPatchFace;
        sampleRegion    cra7;
        samplePatch     cra7_to_cs11;
    }
    cs11_to_fbe15
    {
        type            mappedWall;
        inGroups        1(wall);
        nFaces          50;
        startFace       10050;
        sampleMode      nearestPatchFace;
        sampleRegion    fbe15;
        samplePatch     fbe15_to_cs11;
    }
)

// ************************************************************************* //
