/*--------------------------------*- C++ -*----------------------------------*\
| =========                 |                                                 |
| \\      /  F ield         | OpenFOAM: The Open Source CFD Toolbox           |
|  \\    /   O peration     | Version:  v1906                                 |
|   \\  /    A nd           | Web:      www.OpenFOAM.com                      |
|    \\/     M anipulation  |                                                 |
\*---------------------------------------------------------------------------*/
FoamFile
{
    version     2.0;
    format      ascii;
    class       polyBoundaryMesh;
    location    "constant/impp34/polyMesh";
    object      boundary;
}
// * * * * * * * * * * * * * * * * * * * * * * * * * * * * * * * * * * * * * //

6
(
    front
    {
        type            wedge;
        inGroups        1(wedge);
        nFaces          2500;
        startFace       4900;
    }
    back
    {
        type            wedge;
        inGroups        1(wedge);
        nFaces          2500;
        startFace       7400;
    }
    wedgeright
    {
        type            patch;
        nFaces          50;
        startFace       9900;
    }
    seawater
    {
        type            wall;
        inGroups        1(wall);
        nFaces          50;
        startFace       9950;
    }
    impp34_to_impp31
    {
        type            mappedWall;
        inGroups        1(wall);
        nFaces          50;
        startFace       10000;
        sampleMode      nearestPatchFace;
        sampleRegion    impp31;
        samplePatch     impp31_to_impp34;
    }
    impp34_to_impp33
    {
        type            mappedWall;
        inGroups        1(wall);
        nFaces          50;
        startFace       10050;
        sampleMode      nearestPatchFace;
        sampleRegion    impp33;
        samplePatch     impp33_to_impp34;
    }
)

// ************************************************************************* //
