/*--------------------------------*- C++ -*----------------------------------*\
| =========                 |                                                 |
| \\      /  F ield         | OpenFOAM: The Open Source CFD Toolbox           |
|  \\    /   O peration     | Version:  v1906                                 |
|   \\  /    A nd           | Web:      www.OpenFOAM.com                      |
|    \\/     M anipulation  |                                                 |
\*---------------------------------------------------------------------------*/
FoamFile
{
    version     2.0;
    format      ascii;
    class       polyBoundaryMesh;
    location    "constant/impp26/polyMesh";
    object      boundary;
}
// * * * * * * * * * * * * * * * * * * * * * * * * * * * * * * * * * * * * * //

6
(
    front
    {
        type            wedge;
        inGroups        1(wedge);
        nFaces          2500;
        startFace       4900;
    }
    back
    {
        type            wedge;
        inGroups        1(wedge);
        nFaces          2500;
        startFace       7400;
    }
    impp26_to_ppf25
    {
        type            mappedWall;
        inGroups        1(wall);
        nFaces          50;
        startFace       9900;
        sampleMode      nearestPatchFace;
        sampleRegion    ppf25;
        samplePatch     ppf25_to_impp26;
    }
    impp26_to_impp30
    {
        type            mappedWall;
        inGroups        1(wall);
        nFaces          50;
        startFace       9950;
        sampleMode      nearestPatchFace;
        sampleRegion    impp30;
        samplePatch     impp30_to_impp26;
    }
    impp26_to_pps22
    {
        type            mappedWall;
        inGroups        1(wall);
        nFaces          50;
        startFace       10000;
        sampleMode      nearestPatchFace;
        sampleRegion    pps22;
        samplePatch     pps22_to_impp26;
    }
    impp26_to_impp27
    {
        type            mappedWall;
        inGroups        1(wall);
        nFaces          50;
        startFace       10050;
        sampleMode      nearestPatchFace;
        sampleRegion    impp27;
        samplePatch     impp27_to_impp26;
    }
)

// ************************************************************************* //
